3
Properties=species:S:1:pos:R:3:dipole:R:1 energy=-2064.19620594291 pbc="F F F"
H        0.00920363       0.90754666      -0.00474462       0.35827678
H        0.90072599      -0.01186521      -0.00190283       0.35127471
O        0.00245038      -0.00410023      -0.00892485       0.00440487
19
Properties=species:S:1:pos:R:3:charge:R:1 energy="-422.593067" pbc="F F F"
C	-1.8396130083	 0.5292955664	 3.1820679223	-0.414977
C	-2.146536134	-0.1644674918	 1.8425113894	 0.232941
C	-3.586600184	 0.1326587167	 1.3866819689	-0.415379
O	-1.9452668697	-1.5736417154	 1.9580687171	-0.461014
C	-1.1644615826	 0.2689585055	 0.7910045705	 0.388553
C	-0.2471162449	-0.3975622829	 0.0428984233	-0.278918
C	 0.3852095134	 0.5870284364	-0.7883677644	-0.178412
C	-0.1971400753	 1.7724752692	-0.4801599455	-0.025883
O	-1.1464285779	 1.5977410694	 0.4827597736	-0.201531
H	-2.5655496903	 0.2227697011	 3.9444233135	 0.100196
H	-0.8376996067	 0.2552388729	 3.5215923743	 0.128535
H	-1.8910976269	 1.6166367216	 3.0809448095	 0.130435
H	-4.3011711473	-0.171260251	 2.1607772826	 0.100233
H	-3.7248895561	 1.2003322827	 1.1965844054	 0.130552
H	-3.807483374	-0.4187666041	 0.469412708	 0.128541
H	-2.5619847116	-1.8978764082	 2.6220936647	 0.278056
H	-0.0515172885	-1.45582614	 0.0837382916	 0.120535
H	 1.1666915942	 0.4258947957	-1.5144623143	 0.1088
H	-0.0672231395	 2.7838141258	-0.8278174205	 0.128737